tests/fuzzer/corpus_json/24_columnar_21_random_030.json
{
  "version": "1.0",
  "type": "input",
  "is_batch": false,
  "attributes": {
    "node": [
      "id",
      "u_rated"
    ],
    "source": [
      "id",
      "node",
      "status",
      "u_ref",
      "u_ref_angle",
      "sk",
      "rx_ratio",
      "z01_ratio"
    ],
    "line": [
      "id",
      "from_node",
      "to_node",
      "from_status",
      "to_status",
      "r1",
      "x1",
      "c1",
      "tan1",
      "r0",
      "x0",
      "c0",
      "tan0",
      "i_n"
    ],
    "sym_load": [
      "id",
      "node",
      "status",
      "type",
      "p_specified",
      "q_specified"
    ]
  },
  "data": {
    "node": [
      [
        0,
        10000.0
      ],
      [
        1,
        10000.0
      ],
      [
        2,
        10000.0
      ],
      [
        3,
        10000.0
      ],
      [
        4,
        10000.0
      ],
      [
        5,
        10000.0
      ],
      [
        6,
        10000.0
      ],
      [
        7,
        10000.0
      ],
      [
        8,
        10000.0
      ],
      [
        9,
        10000.0
      ]
    ],
    "source": [
      [
        10,
        0,
        1,
        1.0243752101862964,
        0.0,
        611042239.1804597,
        0.41352682638916627,
        1.0
      ]
    ],
    "line": [
      [
        11,
        0,
        1,
        1,
        1,
        0.24237999309592917,
        1.8808954820624795,
        1.3407121590384252e-07,
        0.0,
        0.3,
        0.3,
        1e-09,
        0.0,
        90.50429081110418
      ],
      [
        12,
        1,
        2,
        1,
        1,
        0.03803338831234737,
        2.6117935401414325,
        9.324003103574777e-07,
        0.0,
        0.3,
        0.3,
        1e-09,
        0.0,
        35.592228784551075
      ],
      [
        13,
        2,
        3,
        1,
        1,
        4.999475000795014,
        4.542684176635098,
        8.160995140638553e-07,
        0.0,
        0.3,
        0.3,
        1e-09,
        0.0,
        535.5157649389508
      ],
      [
        14,
        3,
        4,
        1,
        1,
        2.008895127928596,
        4.159421535373621,
        3.4840049993399356e-07,
        0.0,
        0.3,
        0.3,
        1e-09,
        0.0,
        883.2492537569606
      ],
      [
        15,
        4,
        5,
        1,
        1,
        2.0070572578724493,
        1.2430896910017086,
        5.628178393242486e-07,
        0.0,
        0.3,
        0.3,
        1e-09,
        0.0,
        287.00215835408585
      ],
      [
        16,
        5,
        6,
        1,
        1,
        2.144117190154361,
        0.477434123825049,
        2.7842980354072753e-07,
        0.0,
        0.3,
        0.3,
        1e-09,
        0.0,
        566.6612922118893
      ],
      [
        17,
        6,
        7,
        1,
        1,
        4.849858623435721,
        3.0673176979441346,
        9.33746139028624e-07,
        0.0,
        0.3,
        0.3,
        1e-09,
        0.0,
        138.0518288243671
      ],
      [
        18,
        7,
        8,
        1,
        1,
        1.5431138454778859,
        1.5586220939468654,
        5.069971314098125e-07,
        0.0,
        0.3,
        0.3,
        1e-09,
        0.0,
        146.95472464555044
      ],
      [
        19,
        8,
        9,
        1,
        1,
        3.496917013623379,
        0.5926189858330422,
        2.8744328094468917e-08,
        0.0,
        0.3,
        0.3,
        1e-09,
        0.0,
        917.2378573745535
      ]
    ],
    "sym_load": [
      [
        20,
        1,
        1,
        0,
        4748.497371468853,
        -6272.626299854518
      ],
      [
        21,
        3,
        1,
        2,
        89692.56629385237,
        400.3687706071996
      ],
      [
        22,
        4,
        1,
        2,
        88968.76588869447,
        -514.9239483312631
      ],
      [
        23,
        5,
        1,
        1,
        -49266.249566380524,
        -4888.0246439038765
      ]
    ]
  }
}
